384
Ir init cluster
Ir	0.00	0.00	0.00
Ir	0.50	0.00	0.50
Ir	0.50	-0.50	0.00
Ir	0.00	-0.50	0.50
Ir	0.50	0.50	0.00
Ir	0.50	0.00	-0.50
Ir	0.00	0.50	0.50
Ir	0.00	-0.50	-0.50
Ir	-0.50	0.00	0.50
Ir	-0.50	-0.50	0.00
Ir	0.00	0.50	-0.50
Ir	-0.50	0.50	0.00
Ir	-0.50	0.00	-0.50
Ir	1.00	0.00	0.00
Ir	0.00	0.00	1.00
Ir	0.00	-1.00	0.00
Ir	0.00	1.00	0.00
Ir	0.00	0.00	-1.00
Ir	-1.00	0.00	0.00
Ir	1.00	-0.50	0.50
Ir	0.50	-0.50	1.00
Ir	0.50	-1.00	0.50
Ir	1.00	0.50	0.50
Ir	1.00	-0.50	-0.50
Ir	0.50	0.50	1.00
Ir	0.50	-1.00	-0.50
Ir	-0.50	-0.50	1.00
Ir	-0.50	-1.00	0.50
Ir	1.00	0.50	-0.50
Ir	0.50	1.00	0.50
Ir	0.50	-0.50	-1.00
Ir	-0.50	0.50	1.00
Ir	-0.50	-1.00	-0.50
Ir	-1.00	-0.50	0.50
Ir	0.50	1.00	-0.50
Ir	0.50	0.50	-1.00
Ir	-0.50	1.00	0.50
Ir	-0.50	-0.50	-1.00
Ir	-1.00	0.50	0.50
Ir	-1.00	-0.50	-0.50
Ir	-0.50	1.00	-0.50
Ir	-0.50	0.50	-1.00
Ir	-1.00	0.50	-0.50
Ir	1.00	0.00	1.00
Ir	1.00	-1.00	0.00
Ir	0.00	-1.00	1.00
Ir	1.00	1.00	0.00
Ir	1.00	0.00	-1.00
Ir	0.00	1.00	1.00
Ir	0.00	-1.00	-1.00
Ir	-1.00	0.00	1.00
Ir	-1.00	-1.00	0.00
Ir	0.00	1.00	-1.00
Ir	-1.00	1.00	0.00
Ir	-1.00	0.00	-1.00
Ir	1.50	0.00	0.50
Ir	1.50	-0.50	0.00
Ir	0.50	0.00	1.50
Ir	0.50	-1.50	0.00
Ir	0.00	-0.50	1.50
Ir	0.00	-1.50	0.50
Ir	1.50	0.50	0.00
Ir	1.50	0.00	-0.50
Ir	0.00	0.50	1.50
Ir	0.00	-1.50	-0.50
Ir	-0.50	0.00	1.50
Ir	-0.50	-1.50	0.00
Ir	0.50	1.50	0.00
Ir	0.50	0.00	-1.50
Ir	0.00	1.50	0.50
Ir	0.00	-0.50	-1.50
Ir	-1.50	0.00	0.50
Ir	-1.50	-0.50	0.00
Ir	0.00	1.50	-0.50
Ir	0.00	0.50	-1.50
Ir	-0.50	1.50	0.00
Ir	-0.50	0.00	-1.50
Ir	-1.50	0.50	0.00
Ir	-1.50	0.00	-0.50
Ir	1.00	-1.00	1.00
Ir	1.00	1.00	1.00
Ir	1.00	-1.00	-1.00
Ir	-1.00	-1.00	1.00
Ir	1.00	1.00	-1.00
Ir	-1.00	1.00	1.00
Ir	-1.00	-1.00	-1.00
Ir	-1.00	1.00	-1.00
Ir	1.50	-0.50	1.00
Ir	1.50	-1.00	0.50
Ir	1.00	-0.50	1.50
Ir	1.00	-1.50	0.50
Ir	0.50	-1.00	1.50
Ir	0.50	-1.50	1.00
Ir	1.50	0.50	1.00
Ir	1.50	-1.00	-0.50
Ir	1.00	0.50	1.50
Ir	1.00	-1.50	-0.50
Ir	-0.50	-1.00	1.50
Ir	-0.50	-1.50	1.00
Ir	1.50	1.00	0.50
Ir	1.50	-0.50	-1.00
Ir	0.50	1.00	1.50
Ir	0.50	-1.50	-1.00
Ir	-1.00	-0.50	1.50
Ir	-1.00	-1.50	0.50
Ir	1.50	1.00	-0.50
Ir	1.50	0.50	-1.00
Ir	1.00	1.50	0.50
Ir	1.00	-0.50	-1.50
Ir	0.50	1.50	1.00
Ir	0.50	-1.00	-1.50
Ir	-0.50	1.00	1.50
Ir	-0.50	-1.50	-1.00
Ir	-1.00	0.50	1.50
Ir	-1.00	-1.50	-0.50
Ir	-1.50	-0.50	1.00
Ir	-1.50	-1.00	0.50
Ir	1.00	1.50	-0.50
Ir	1.00	0.50	-1.50
Ir	-0.50	1.50	1.00
Ir	-0.50	-1.00	-1.50
Ir	-1.50	0.50	1.00
Ir	-1.50	-1.00	-0.50
Ir	0.50	1.50	-1.00
Ir	0.50	1.00	-1.50
Ir	-1.00	1.50	0.50
Ir	-1.00	-0.50	-1.50
Ir	-1.50	1.00	0.50
Ir	-1.50	-0.50	-1.00
Ir	-0.50	1.50	-1.00
Ir	-0.50	1.00	-1.50
Ir	-1.00	1.50	-0.50
Ir	-1.00	0.50	-1.50
Ir	-1.50	1.00	-0.50
Ir	-1.50	0.50	-1.00
Ir	2.00	0.00	0.00
Ir	0.00	0.00	2.00
Ir	0.00	-2.00	0.00
Ir	0.00	2.00	0.00
Ir	0.00	0.00	-2.00
Ir	-2.00	0.00	0.00
Ir	2.00	-0.50	0.50
Ir	1.50	0.00	1.50
Ir	1.50	-1.50	0.00
Ir	0.50	-0.50	2.00
Ir	0.50	-2.00	0.50
Ir	0.00	-1.50	1.50
Ir	2.00	0.50	0.50
Ir	2.00	-0.50	-0.50
Ir	0.50	0.50	2.00
Ir	0.50	-2.00	-0.50
Ir	-0.50	-0.50	2.00
Ir	-0.50	-2.00	0.50
Ir	2.00	0.50	-0.50
Ir	-0.50	0.50	2.00
Ir	-0.50	-2.00	-0.50
Ir	1.50	1.50	0.00
Ir	1.50	0.00	-1.50
Ir	0.00	1.50	1.50
Ir	0.00	-1.50	-1.50
Ir	-1.50	0.00	1.50
Ir	-1.50	-1.50	0.00
Ir	0.50	2.00	0.50
Ir	0.50	-0.50	-2.00
Ir	-2.00	-0.50	0.50
Ir	0.50	2.00	-0.50
Ir	0.50	0.50	-2.00
Ir	-0.50	2.00	0.50
Ir	-0.50	-0.50	-2.00
Ir	-2.00	0.50	0.50
Ir	-2.00	-0.50	-0.50
Ir	0.00	1.50	-1.50
Ir	-0.50	2.00	-0.50
Ir	-0.50	0.50	-2.00
Ir	-1.50	1.50	0.00
Ir	-1.50	0.00	-1.50
Ir	-2.00	0.50	-0.50
Ir	2.00	0.00	1.00
Ir	2.00	-1.00	0.00
Ir	1.00	0.00	2.00
Ir	1.00	-2.00	0.00
Ir	0.00	-1.00	2.00
Ir	0.00	-2.00	1.00
Ir	2.00	1.00	0.00
Ir	2.00	0.00	-1.00
Ir	0.00	1.00	2.00
Ir	0.00	-2.00	-1.00
Ir	-1.00	0.00	2.00
Ir	-1.00	-2.00	0.00
Ir	1.00	2.00	0.00
Ir	1.00	0.00	-2.00
Ir	0.00	2.00	1.00
Ir	0.00	-1.00	-2.00
Ir	-2.00	0.00	1.00
Ir	-2.00	-1.00	0.00
Ir	0.00	2.00	-1.00
Ir	0.00	1.00	-2.00
Ir	-1.00	2.00	0.00
Ir	-1.00	0.00	-2.00
Ir	-2.00	1.00	0.00
Ir	-2.00	0.00	-1.00
Ir	1.50	-1.00	1.50
Ir	1.50	-1.50	1.00
Ir	1.00	-1.50	1.50
Ir	1.50	1.00	1.50
Ir	1.50	-1.50	-1.00
Ir	-1.00	-1.50	1.50
Ir	1.50	1.50	1.00
Ir	1.50	-1.00	-1.50
Ir	1.00	1.50	1.50
Ir	1.00	-1.50	-1.50
Ir	-1.50	-1.00	1.50
Ir	-1.50	-1.50	1.00
Ir	1.50	1.50	-1.00
Ir	1.50	1.00	-1.50
Ir	-1.00	1.50	1.50
Ir	-1.00	-1.50	-1.50
Ir	-1.50	1.00	1.50
Ir	-1.50	-1.50	-1.00
Ir	1.00	1.50	-1.50
Ir	-1.50	1.50	1.00
Ir	-1.50	-1.00	-1.50
Ir	-1.00	1.50	-1.50
Ir	-1.50	1.50	-1.00
Ir	-1.50	1.00	-1.50
Ir	2.00	-1.00	1.00
Ir	1.00	-1.00	2.00
Ir	1.00	-2.00	1.00
Ir	2.00	1.00	1.00
Ir	2.00	-1.00	-1.00
Ir	1.00	1.00	2.00
Ir	1.00	-2.00	-1.00
Ir	-1.00	-1.00	2.00
Ir	-1.00	-2.00	1.00
Ir	2.00	1.00	-1.00
Ir	1.00	2.00	1.00
Ir	1.00	-1.00	-2.00
Ir	-1.00	1.00	2.00
Ir	-1.00	-2.00	-1.00
Ir	-2.00	-1.00	1.00
Ir	1.00	2.00	-1.00
Ir	1.00	1.00	-2.00
Ir	-1.00	2.00	1.00
Ir	-1.00	-1.00	-2.00
Ir	-2.00	1.00	1.00
Ir	-2.00	-1.00	-1.00
Ir	-1.00	2.00	-1.00
Ir	-1.00	1.00	-2.00
Ir	-2.00	1.00	-1.00
Ir	2.00	-0.50	1.50
Ir	2.00	-1.50	0.50
Ir	1.50	-0.50	2.00
Ir	1.50	-2.00	0.50
Ir	0.50	-1.50	2.00
Ir	0.50	-2.00	1.50
Ir	2.50	0.00	0.50
Ir	2.50	-0.50	0.00
Ir	2.00	0.50	1.50
Ir	2.00	-1.50	-0.50
Ir	1.50	0.50	2.00
Ir	1.50	-2.00	-0.50
Ir	0.50	0.00	2.50
Ir	0.50	-2.50	0.00
Ir	0.00	-0.50	2.50
Ir	0.00	-2.50	0.50
Ir	-0.50	-1.50	2.00
Ir	-0.50	-2.00	1.50
Ir	2.50	0.50	0.00
Ir	2.50	0.00	-0.50
Ir	0.00	0.50	2.50
Ir	0.00	-2.50	-0.50
Ir	-0.50	0.00	2.50
Ir	-0.50	-2.50	0.00
Ir	2.00	1.50	0.50
Ir	2.00	-0.50	-1.50
Ir	0.50	1.50	2.00
Ir	0.50	-2.00	-1.50
Ir	-1.50	-0.50	2.00
Ir	-1.50	-2.00	0.50
Ir	2.00	1.50	-0.50
Ir	2.00	0.50	-1.50
Ir	1.50	2.00	0.50
Ir	1.50	-0.50	-2.00
Ir	0.50	2.00	1.50
Ir	0.50	-1.50	-2.00
Ir	-0.50	1.50	2.00
Ir	-0.50	-2.00	-1.50
Ir	-1.50	0.50	2.00
Ir	-1.50	-2.00	-0.50
Ir	-2.00	-0.50	1.50
Ir	-2.00	-1.50	0.50
Ir	1.50	2.00	-0.50
Ir	1.50	0.50	-2.00
Ir	-0.50	2.00	1.50
Ir	-0.50	-1.50	-2.00
Ir	-2.00	0.50	1.50
Ir	-2.00	-1.50	-0.50
Ir	0.50	2.50	0.00
Ir	0.50	0.00	-2.50
Ir	0.00	2.50	0.50
Ir	0.00	-0.50	-2.50
Ir	-2.50	0.00	0.50
Ir	-2.50	-0.50	0.00
Ir	0.50	2.00	-1.50
Ir	0.50	1.50	-2.00
Ir	0.00	2.50	-0.50
Ir	0.00	0.50	-2.50
Ir	-0.50	2.50	0.00
Ir	-0.50	0.00	-2.50
Ir	-1.50	2.00	0.50
Ir	-1.50	-0.50	-2.00
Ir	-2.00	1.50	0.50
Ir	-2.00	-0.50	-1.50
Ir	-2.50	0.50	0.00
Ir	-2.50	0.00	-0.50
Ir	-0.50	2.00	-1.50
Ir	-0.50	1.50	-2.00
Ir	-1.50	2.00	-0.50
Ir	-1.50	0.50	-2.00
Ir	-2.00	1.50	-0.50
Ir	-2.00	0.50	-1.50
Ir	2.50	-0.50	1.00
Ir	2.50	-1.00	0.50
Ir	1.00	-0.50	2.50
Ir	1.00	-2.50	0.50
Ir	0.50	-1.00	2.50
Ir	0.50	-2.50	1.00
Ir	2.50	0.50	1.00
Ir	2.50	-1.00	-0.50
Ir	1.00	0.50	2.50
Ir	1.00	-2.50	-0.50
Ir	-0.50	-1.00	2.50
Ir	-0.50	-2.50	1.00
Ir	2.50	1.00	0.50
Ir	2.50	-0.50	-1.00
Ir	0.50	1.00	2.50
Ir	0.50	-2.50	-1.00
Ir	-1.00	-0.50	2.50
Ir	-1.00	-2.50	0.50
Ir	2.50	1.00	-0.50
Ir	2.50	0.50	-1.00
Ir	-0.50	1.00	2.50
Ir	-0.50	-2.50	-1.00
Ir	-1.00	0.50	2.50
Ir	-1.00	-2.50	-0.50
Ir	1.00	2.50	0.50
Ir	1.00	-0.50	-2.50
Ir	0.50	2.50	1.00
Ir	0.50	-1.00	-2.50
Ir	-2.50	-0.50	1.00
Ir	-2.50	-1.00	0.50
Ir	1.00	2.50	-0.50
Ir	-2.50	0.50	-1.00
Ir	-2.50	1.00	-0.50
Ir	1.00	0.50	-2.50
Ir	-0.50	2.50	1.00
Ir	-0.50	-1.00	-2.50
Ir	-2.50	0.50	1.00
Ir	-2.50	-1.00	-0.50
Ir	0.50	2.50	-1.00
Ir	0.50	1.00	-2.50
Ir	-1.00	2.50	0.50
Ir	-1.00	-0.50	-2.50
Ir	-2.50	1.00	0.50
Ir	-2.50	-0.50	-1.00
Ir	-0.50	2.50	-1.00
Ir	-0.50	1.00	-2.50
Ir	-1.00	2.50	-0.50
Ir	-1.00	0.50	-2.50
Ir	2.00	0.00	2.00
Ir	2.00	-2.00	0.00
Ir	0.00	-2.00	2.00
Ir	2.00	2.00	0.00
Ir	2.00	0.00	-2.00
Ir	0.00	2.00	2.00
Ir	0.00	-2.00	-2.00
Ir	-2.00	0.00	2.00
Ir	-2.00	-2.00	0.00
Ir	-2.00	0.00	-2.00
Ir	0.00	2.00	-2.00
Ir	-2.00	2.00	0.00
Ir	2.00	-1.50	1.50
Ir	1.50	-1.50	2.00
Ir	1.50	-2.00	1.50
